
 Fire Dynamics Simulator

 Current Date     : February 21, 2018  03:51:50
 Version          : FDS 6.6.0
 Revision         : FDS6.6.0-131-g88ae75a-HEAD
 Revision Date    : Wed Nov 1 16:03:29 2017 -0400
 Compiler         : Intel ifort 17.0.4
 Compilation Date : Nov 01, 2017 21:03:34

 MPI Enabled;    Number of MPI Processes:       1
 OpenMP Enabled; Number of OpenMP Threads:      8

 MPI version: 3.1
 MPI library version: Intel(R) MPI Library 2017 Update 3 for Linux* OS


 Job TITLE        : V1_npart_10000
 Job ID string    : V1_npart_10000


 Grid Dimensions, Mesh     1

   Cells in the X Direction           128
   Cells in the Y Direction            49
   Cells in the Z Direction            26


 Physical Dimensions, Mesh     1

   Length (m)                       6.400
   Width  (m)                       2.450
   Height (m)                       1.300
   Initial Time Step (s)            0.055

 Grid Dimensions, Mesh     2

   Cells in the X Direction            15
   Cells in the Y Direction            16
   Cells in the Z Direction            20


 Physical Dimensions, Mesh     2

   Length (m)                       0.750
   Width  (m)                       0.800
   Height (m)                       1.000
   Initial Time Step (s)            0.055


 Miscellaneous Parameters

   Simulation Start Time (s)          0.0
   Simulation End Time (s)          100.0
   LES Calculation
   Eddy Viscosity:           Deardorff Model (C_DEARDORFF)                          0.10
   Near-wall Eddy Viscosity: Smagorinsky with Van Driest damping (C_SMAGORINSKY)    0.20
   Turbulent Prandtl Number          0.50
   Turbulent Schmidt Number          0.50
   Ambient Temperature (C)          16.00


 Mass Fraction Transformation Matrix to Convert Species Mixtures (Columns) to Primitive Species (Rows)

                         AIR       N-HEPTAN  PRODUCTS
   N-HEPTANE             0.000000  1.000000  0.000000
   NITROGEN              0.764007  0.000000  0.715476
   OXYGEN                0.231463  0.000000  0.000000
   CARBON DIOXIDE        0.000593  0.000000  0.187316
   CARBON MONOXIDE       0.000000  0.000000  0.000000
   WATER VAPOR           0.003937  0.000000  0.094857
   SOOT                  0.000000  0.000000  0.002350


 Primitive Species Information

   N-HEPTANE
   Gas Species
   Molecular Weight (g/mol)           100.20194
   Ambient Density (kg/m^3)            4.223
   Enthalpy of Formation (J/kg)       -1.87E+06

   NITROGEN
   Gas Species
   Molecular Weight (g/mol)            28.01340
   Ambient Density (kg/m^3)            1.181
   Enthalpy of Formation (J/kg)        0.00E+00

   OXYGEN
   Gas Species
   Molecular Weight (g/mol)            31.99880
   Ambient Density (kg/m^3)            1.349
   Enthalpy of Formation (J/kg)        0.00E+00

   CARBON DIOXIDE
   Gas Species
   Molecular Weight (g/mol)            44.00950
   Ambient Density (kg/m^3)            1.855
   Enthalpy of Formation (J/kg)       -8.94E+06

   CARBON MONOXIDE
   Gas Species
   Molecular Weight (g/mol)            28.01010
   Ambient Density (kg/m^3)            1.181
   Enthalpy of Formation (J/kg)       -3.95E+06

   WATER VAPOR
   Gas Species
   Molecular Weight (g/mol)            18.01528
   Ambient Density (kg/m^3)            0.759
   Enthalpy of Formation (J/kg)       -1.34E+07

   SOOT
   Gas Species
   Molecular Weight (g/mol)            10.91042
   Ambient Density (kg/m^3)            0.460
   Enthalpy of Formation (J/kg)        0.00E+00


 Tracked (Lumped) Species Information

   AIR
   Molecular Weight (g/mol)            28.78657
   Ambient Density (kg/m^3)            1.213
   Initial Mass Fraction               1.000
   Enthalpy of Formation (J/kg)     -5.81E+04

   Sub Species                    Mass Fraction     Mole Fraction
   NITROGEN                       7.640072E-01      7.850939E-01
   OXYGEN                         2.314631E-01      2.082275E-01
   CARBON DIOXIDE                 5.926575E-04      3.876567E-04
   WATER VAPOR                    3.937039E-03      6.290984E-03
 
     Viscosity (kg/m/s) Ambient,  289 K:  1.78E-05
                                  500 K:  2.61E-05
                                 1000 K:  4.13E-05
                                 1500 K:  5.37E-05
   Therm. Cond. (W/m/K) Ambient,  289 K:  2.53E-02
                                  500 K:  3.81E-02
                                 1000 K:  6.68E-02
                                 1500 K:  9.24E-02
        Enthalpy (J/kg) Ambient,  289 K: -6.75E+04
                                  500 K:  1.49E+05
                                 1000 K:  6.98E+05
                                 1500 K:  1.29E+06
    Spec. Heat (J/kg/K) Ambient,  289 K:  1.01E+03
                                  500 K:  1.04E+03
                                 1000 K:  1.15E+03
                                 1500 K:  1.23E+03
   Diff. Coeff. (m^2/s) Ambient,  289 K:  1.94E-05
                                  500 K:  4.96E-05
                                 1000 K:  1.58E-04
                                 1500 K:  3.09E-04

   N-HEPTANE
   Molecular Weight (g/mol)           100.20194
   Ambient Density (kg/m^3)            4.223
   Initial Mass Fraction               0.000
   Enthalpy of Formation (J/kg)     -1.87E+06

   Sub Species                    Mass Fraction     Mole Fraction
   N-HEPTANE                      1.000000E+00      1.000000E+00
 
     Viscosity (kg/m/s) Ambient,  289 K:  1.52E-05
                                  500 K:  2.45E-05
                                 1000 K:  4.11E-05
                                 1500 K:  5.41E-05
   Therm. Cond. (W/m/K) Ambient,  289 K:  2.95E-02
                                  500 K:  7.42E-02
                                 1000 K:  1.89E-01
                                 1500 K:  2.89E-01
        Enthalpy (J/kg) Ambient,  289 K: -1.89E+06
                                  500 K: -1.45E+06
                                 1000 K:  1.74E+05
                                 1500 K:  2.25E+06
    Spec. Heat (J/kg/K) Ambient,  289 K:  1.61E+03
                                  500 K:  2.52E+03
                                 1000 K:  3.81E+03
                                 1500 K:  4.43E+03
   Diff. Coeff. (m^2/s) Ambient,  289 K:  1.08E-05
                                  500 K:  2.83E-05
                                 1000 K:  9.18E-05
                                 1500 K:  1.80E-04
 
   Liq. Enthalpy (J/kg)     Melt  183 K: -2.51E+06
                                  277 K: -2.29E+06
                            Boil  372 K: -2.04E+06
 
   Liq. Spec. Heat (J/kg/K) Melt  183 K:  2.31E+03
                                  277 K:  2.46E+03
                            Boil  372 K:  2.82E+03
 
   Heat of Vapor. (J/kg)    Melt  183 K:  4.75E+05
                                  277 K:  3.84E+05
                            Boil  372 K:  3.01E+05

   PRODUCTS
   Molecular Weight (g/mol)            28.34664
   Ambient Density (kg/m^3)            1.195
   Initial Mass Fraction               0.000
   Enthalpy of Formation (J/kg)     -2.95E+06

   Sub Species                    Mass Fraction     Mole Fraction
   NITROGEN                       7.154764E-01      7.239874E-01
   CARBON DIOXIDE                 1.873164E-01      1.206510E-01
   CARBON MONOXIDE                0.000000E+00      0.000000E+00
   WATER VAPOR                    9.485689E-02      1.492552E-01
   SOOT                           2.350292E-03      6.106351E-03
 
     Viscosity (kg/m/s) Ambient,  289 K:  1.60E-05
                                  500 K:  2.39E-05
                                 1000 K:  3.89E-05
                                 1500 K:  5.14E-05
   Therm. Cond. (W/m/K) Ambient,  289 K:  2.31E-02
                                  500 K:  3.62E-02
                                 1000 K:  6.70E-02
                                 1500 K:  9.59E-02
        Enthalpy (J/kg) Ambient,  289 K: -2.96E+06
                                  500 K: -2.72E+06
                                 1000 K: -2.12E+06
                                 1500 K: -1.45E+06
    Spec. Heat (J/kg/K) Ambient,  289 K:  1.08E+03
                                  500 K:  1.13E+03
                                 1000 K:  1.29E+03
                                 1500 K:  1.39E+03
   Diff. Coeff. (m^2/s) Ambient,  289 K:  1.90E-05
                                  500 K:  4.94E-05
                                 1000 K:  1.59E-04
                                 1500 K:  3.14E-04


 Gas Phase Reaction Information

   Heptane, C_7 H_16

   Fuel                                           Heat of Combustion (kJ/kg)
   N-HEPTANE                                                      43681.2148

   Stoichiometry

   Primitive Species Stoich. Coeff.
   Species ID                                                          Molar
   N-HEPTANE                                                       -1.000000
   OXYGEN                                                         -10.685676
   CARBON DIOXIDE                                                   6.694171
   WATER VAPOR                                                      7.983009
   SOOT                                                             0.339810

   Tracked (Lumped) Species Stoich. Coeff.
   Species ID                                             Molar         Mass
   AIR                                               -51.317314   -14.742725
   N-HEPTANE                                          -1.000000    -1.000000
   PRODUCTS                                           55.648629    15.742725

   Reaction Kinetics

   Arrhenius Parameters
   Pre-exponential:    Infinite
   Activation Energy:  N/A

   ODE Solver:  EXPLICIT EULER
   Extinction Model:  EXTINCTION 2
   Ignition Temperature (K):            0.0
   Critical Flame Temperature (K):   1700.2


 Material Information

   1 FIRE_RESISTANT_GLASS                                        
     Emissivity                      0.900
     Density (kg/m3)                2283.3
     Specific Heat (kJ/kg/K)          0.83
     Conductivity (W/m/K)           1.0000

   2 FIREPROOFING_BOARD                                          
     Emissivity                      0.900
     Density (kg/m3)                 200.0
     Specific Heat (kJ/kg/K)          0.84
     Conductivity (W/m/K)           0.0400

   3 HEPTANE LIQUID                                              
     Emissivity                      1.000
     Density (kg/m3)                 684.0
     Specific Heat (kJ/kg/K)          2.25
     Conductivity (W/m/K)           0.1400
     Absorption coefficient (1/m)  1000.00
     Liquid evaporation reaction
        Gaseous Yields:
        AIR                                                         :     0.00
        N-HEPTANE                                                   :     1.00
        PRODUCTS                                                    :     0.00
        Boiling temperature (C):    98.50
        H_R (kJ/kg)            :  3.65E+02

   4 STEEL                                                       
     Emissivity                      1.000
     Density (kg/m3)                7850.0
     Specific Heat (kJ/kg/K)          0.46
     Conductivity (W/m/K)          45.8000


 Surface Conditions

   0 INERT (DEFAULT)

   1 FIRE_RESISTANT_GLASS
     Material List
          1  FIRE_RESISTANT_GLASS
     Layer  1
        Thickness   (m):  0.00600
        Density (kg/m3):  2283.33
        FIRE_RESISTANT_GLASS, Mass fraction:    1.00
     Total surface density    13.700 kg/m2
     Reaction products considered from the first  0.50 layers.
     Solid Phase Node, Layer, Coordinates(m):
                    0      1       0.0000000
                    1      1       0.0006000
                    2      1       0.0018000
                    3      1       0.0042000
                    4      1       0.0054000
                    5      1       0.0060000
     Exposed Backing

   2 FIREPROOFING_BOARD
     Material List
          1  FIREPROOFING_BOARD
     Layer  1
        Thickness   (m):  0.00800
        Density (kg/m3):   200.00
        FIREPROOFING_BOARD, Mass fraction:    1.00
     Total surface density     1.600 kg/m2
     Reaction products considered from the first  0.50 layers.
     Solid Phase Node, Layer, Coordinates(m):
                    0      1       0.0000000
                    1      1       0.0003636
                    2      1       0.0010909
                    3      1       0.0025455
                    4      1       0.0054545
                    5      1       0.0069091
                    6      1       0.0076364
                    7      1       0.0080000
     Exposed Backing

   3 HEPTANE POOL
     Material List
          1  HEPTANE LIQUID
     Layer  1
        Thickness   (m):  0.01000
        Density (kg/m3):   684.00
        HEPTANE LIQUID, Mass fraction:    1.00
     Total surface density     6.840 kg/m2
     Reaction products considered from the first  0.50 layers.
     Solid Phase Node, Layer, Coordinates(m):
                    0      1       0.0000000
                    1      1       0.0002941
                    2      1       0.0005882
                    3      1       0.0008824
                    4      1       0.0011765
                    5      1       0.0014706
                    6      1       0.0017647
                    7      1       0.0020588
                    8      1       0.0023529
                    9      1       0.0026471
                   10      1       0.0029412
                   11      1       0.0032353
                   12      1       0.0035294
                   13      1       0.0038235
                   14      1       0.0041176
                   15      1       0.0044118
                   16      1       0.0047059
                   17      1       0.0050000
                   18      1       0.0052941
                   19      1       0.0055882
                   20      1       0.0058824
                   21      1       0.0061765
                   22      1       0.0064706
                   23      1       0.0067647
                   24      1       0.0070588
                   25      1       0.0073529
                   26      1       0.0076471
                   27      1       0.0079412
                   28      1       0.0082353
                   29      1       0.0085294
                   30      1       0.0088235
                   31      1       0.0091176
                   32      1       0.0094118
                   33      1       0.0097059
                   34      1       0.0100000
     Exposed Backing

   4 STEEL SHEET
     Material List
          1  STEEL
     Layer  1
        Thickness   (m):  0.00500
        Density (kg/m3):  7850.00
        STEEL, Mass fraction:    1.00
     Total surface density    39.250 kg/m2
     Reaction products considered from the first  0.50 layers.
     Solid Phase Node, Layer, Coordinates(m):
                    0      1       0.0000000
                    1      1       0.0025000
                    2      1       0.0050000
     Exposed Backing

   5 OPEN
     Passive Vent to Atmosphere

   6 MIRROR
     Symmetry Plane

   7 INTERPOLATED

   8 PERIODIC

   9 HVAC

  10 MASSLESS TRACER

  11 DROPLET

  12 VEGETATION

  13 EVACUATION_OUTFLOW
     Normal Velocity (m/s)         0.000

  14 MASSLESS TARGET

  15 PERIODIC WIND


 Device Properties

   1 pdpa
     Smokeview ID                sensor


 Device Coordinates

     1 Coords:     5.00     1.00     0.57, Make: null, ID: TC_1, Quantity: THERMOCOUPLE
     2 Coords:     5.00     1.00     0.58, Make: null, ID: TC_2, Quantity: THERMOCOUPLE
     3 Coords:     5.00     1.00     0.59, Make: null, ID: TC_3, Quantity: THERMOCOUPLE
     4 Coords:     5.00     1.00     0.60, Make: null, ID: TC_4, Quantity: THERMOCOUPLE
     5 Coords:     5.00     1.00     0.61, Make: null, ID: TC_5, Quantity: THERMOCOUPLE
     6 Coords:     5.00     1.00     0.62, Make: null, ID: TC_6, Quantity: THERMOCOUPLE
     7 Coords:     5.00     1.00     0.63, Make: null, ID: TC_7, Quantity: THERMOCOUPLE
     8 Coords:     5.00     1.00     0.64, Make: null, ID: TC_8, Quantity: THERMOCOUPLE
     9 Coords:     5.00     1.00     0.65, Make: null, ID: TC_9, Quantity: THERMOCOUPLE
    10 Coords:     5.00     1.00     0.66, Make: null, ID: TC_10, Quantity: THERMOCOUPLE
    11 Coords:     5.00     1.00     0.67, Make: null, ID: TC_11, Quantity: THERMOCOUPLE
    12 Coords:     5.00     1.00     0.68, Make: null, ID: TC_12, Quantity: THERMOCOUPLE
    13 Coords:     5.00     1.00     0.69, Make: null, ID: TC_13, Quantity: THERMOCOUPLE
    14 Coords:     5.00     1.00     0.70, Make: null, ID: TC_14, Quantity: THERMOCOUPLE
    15 Coords:     5.00     1.00     0.71, Make: null, ID: TC_15, Quantity: THERMOCOUPLE
    16 Coords:     5.00     1.00     0.72, Make: null, ID: TC_16, Quantity: THERMOCOUPLE
    17 Coords:     5.00     1.00     0.73, Make: null, ID: TC_17, Quantity: THERMOCOUPLE
    18 Coords:     5.00     1.00     0.74, Make: null, ID: TC_18, Quantity: THERMOCOUPLE
    19 Coords:     5.00     1.00     0.75, Make: null, ID: TC_19, Quantity: THERMOCOUPLE
    20 Coords:     5.00     1.00     0.76, Make: null, ID: TC_20, Quantity: THERMOCOUPLE
    21 Coords:     5.00     1.00     0.77, Make: null, ID: TC_21, Quantity: THERMOCOUPLE
    22 Coords:     5.00     1.00     0.78, Make: null, ID: TC_22, Quantity: THERMOCOUPLE
    23 Coords:     5.00     1.00     0.79, Make: null, ID: TC_23, Quantity: THERMOCOUPLE
    24 Coords:     5.00     1.00     0.80, Make: null, ID: TC_24, Quantity: THERMOCOUPLE
    25 Coords:     5.00     1.00     0.81, Make: null, ID: TC_25, Quantity: THERMOCOUPLE
    26 Coords:     5.00     1.00     0.82, Make: null, ID: TC_26, Quantity: THERMOCOUPLE
    27 Coords:     5.00     1.00     0.83, Make: null, ID: TC_27, Quantity: THERMOCOUPLE
    28 Coords:     5.00     1.00     0.84, Make: null, ID: TC_28, Quantity: THERMOCOUPLE
    29 Coords:     5.00     1.00     0.85, Make: null, ID: TC_29, Quantity: THERMOCOUPLE
    30 Coords:     5.00     1.00     0.86, Make: null, ID: TC_30, Quantity: THERMOCOUPLE
    31 Coords:     5.00     1.00     0.87, Make: null, ID: TC_31, Quantity: THERMOCOUPLE
    32 Coords:     5.00     1.00     0.88, Make: null, ID: TC_32, Quantity: THERMOCOUPLE
    33 Coords:     5.00     1.00     0.57, Make: null, ID: D_1, Quantity: DENSITY
    34 Coords:     5.00     1.00     0.58, Make: null, ID: D_2, Quantity: DENSITY
    35 Coords:     5.00     1.00     0.59, Make: null, ID: D_3, Quantity: DENSITY
    36 Coords:     5.00     1.00     0.60, Make: null, ID: D_4, Quantity: DENSITY
    37 Coords:     5.00     1.00     0.61, Make: null, ID: D_5, Quantity: DENSITY
    38 Coords:     5.00     1.00     0.62, Make: null, ID: D_6, Quantity: DENSITY
    39 Coords:     5.00     1.00     0.63, Make: null, ID: D_7, Quantity: DENSITY
    40 Coords:     5.00     1.00     0.64, Make: null, ID: D_8, Quantity: DENSITY
    41 Coords:     5.00     1.00     0.65, Make: null, ID: D_9, Quantity: DENSITY
    42 Coords:     5.00     1.00     0.66, Make: null, ID: D_10, Quantity: DENSITY
    43 Coords:     5.00     1.00     0.67, Make: null, ID: D_11, Quantity: DENSITY
    44 Coords:     5.00     1.00     0.68, Make: null, ID: D_12, Quantity: DENSITY
    45 Coords:     5.00     1.00     0.69, Make: null, ID: D_13, Quantity: DENSITY
    46 Coords:     5.00     1.00     0.70, Make: null, ID: D_14, Quantity: DENSITY
    47 Coords:     5.00     1.00     0.71, Make: null, ID: D_15, Quantity: DENSITY
    48 Coords:     5.00     1.00     0.72, Make: null, ID: D_16, Quantity: DENSITY
    49 Coords:     5.00     1.00     0.73, Make: null, ID: D_17, Quantity: DENSITY
    50 Coords:     5.00     1.00     0.74, Make: null, ID: D_18, Quantity: DENSITY
    51 Coords:     5.00     1.00     0.75, Make: null, ID: D_19, Quantity: DENSITY
    52 Coords:     5.00     1.00     0.76, Make: null, ID: D_20, Quantity: DENSITY
    53 Coords:     5.00     1.00     0.77, Make: null, ID: D_21, Quantity: DENSITY
    54 Coords:     5.00     1.00     0.78, Make: null, ID: D_22, Quantity: DENSITY
    55 Coords:     5.00     1.00     0.79, Make: null, ID: D_23, Quantity: DENSITY
    56 Coords:     5.00     1.00     0.80, Make: null, ID: D_24, Quantity: DENSITY
    57 Coords:     5.00     1.00     0.81, Make: null, ID: D_25, Quantity: DENSITY
    58 Coords:     5.00     1.00     0.82, Make: null, ID: D_26, Quantity: DENSITY
    59 Coords:     5.00     1.00     0.83, Make: null, ID: D_27, Quantity: DENSITY
    60 Coords:     5.00     1.00     0.84, Make: null, ID: D_28, Quantity: DENSITY
    61 Coords:     5.00     1.00     0.85, Make: null, ID: D_29, Quantity: DENSITY
    62 Coords:     5.00     1.00     0.86, Make: null, ID: D_30, Quantity: DENSITY
    63 Coords:     5.00     1.00     0.87, Make: null, ID: D_31, Quantity: DENSITY
    64 Coords:     5.00     1.00     0.88, Make: null, ID: D_32, Quantity: DENSITY
    65 Coords:     1.20     1.00     0.00, Make: pdpa, ID: MASS CONCENTRATION, Quantity: PDPA


 Slice File Information, Mesh     1

   Sampling Interval (s)             0.100

   1 Nodes:   0 128  24  24   0  26, Quantity: TEMPERATURE
   2 Nodes:   0 128  24  24   0  26, Quantity: DENSITY


 Slice File Information, Mesh     2

   Sampling Interval (s)             0.100

   1 Nodes:   0  15   8   8   0  20, Quantity: TEMPERATURE
   2 Nodes:   0  15   8   8   0  20, Quantity: DENSITY


 Radiation Model Information

   Number of control angles  104
   Time step increment         3
   Angle increment             5
   Theta band N_phi   Solid angle
     1:        4  0.12
     2:       12  0.11
     3:       16  0.13
     4:       20  0.12
     5:       20  0.12
     6:       16  0.13
     7:       12  0.11
     8:        4  0.12
   Using gray gas absorption.
   Mean beam length  0.250 m
 
 

 Run Time Diagnostics

       Time Step       1   February 21, 2018  03:51:52
       Step Size:    0.546E-01 s, Total Time:       0.05 s
       Pressure Iterations:      1
       Maximum Velocity Error:  0.37E-02 on Mesh   1 at (  36   5  23)
       Maximum Pressure Error:  0.72E-05 on Mesh   1 at (  30  22   5)
       ---------------------------------------------------------------
       Mesh    1
       Max CFL number:  0.22E-01 at ( 106,  34,   5)
       Max divergence:  0.12E-02 at (  29,  24,   5)
       Min divergence: -0.14E-05 at ( 110,  38,   3)
       Max VN number:   0.19E-01 at (  19,  46,  14)
       No. of Lagrangian Particles:         10000
       Radiation Loss to Boundaries:         0.003 kW
       Mesh    2
       Max CFL number:  0.20E-01 at (   3,  13,   4)
       Max divergence:  0.11E-05 at (   9,   9,  17)
       Min divergence: -0.11E-05 at (   5,  14,   7)
       Max VN number:   0.17E-01 at (   9,   6,  18)
 
       Time Step       2   February 21, 2018  03:51:53
       Step Size:    0.546E-01 s, Total Time:       0.11 s
       Pressure Iterations:      1
       Maximum Velocity Error:  0.45E-02 on Mesh   1 at (  29  26   5)
       Maximum Pressure Error:  0.24E-02 on Mesh   1 at (  28  23   5)
       ---------------------------------------------------------------
       Mesh    1
       Max CFL number:  0.23E-01 at ( 106,  34,   5)
       Max divergence:  0.27E+00 at (  28,  25,   5)
       Min divergence: -0.14E-05 at ( 110,  38,   3)
       Max VN number:   0.19E-01 at (  19,  46,  14)
       No. of Lagrangian Particles:         10000
       Total Heat Release Rate:              0.072 kW
       Radiation Loss to Boundaries:         0.010 kW
       Mesh    2
       Max CFL number:  0.20E-01 at (   3,  13,   4)
       Max divergence:  0.11E-05 at (   9,   9,  17)
       Min divergence: -0.11E-05 at (   5,  14,   7)
       Max VN number:   0.17E-01 at (   9,   6,  18)
 
       Time Step       3   February 21, 2018  03:51:55
       Step Size:    0.546E-01 s, Total Time:       0.16 s
       Pressure Iterations:      1
       Maximum Velocity Error:  0.12E-01 on Mesh   1 at (  28  25   5)
       Maximum Pressure Error:  0.58E+00 on Mesh   1 at (  28  25   5)
       ---------------------------------------------------------------
       Mesh    1
       Max CFL number:  0.34E-01 at (  29,  24,   5)
       Max divergence:  0.94E+00 at (  29,  23,   5)
       Min divergence: -0.14E-05 at ( 110,  38,   3)
       Max VN number:   0.19E-01 at (  19,  46,  14)
       No. of Lagrangian Particles:         10000
       Total Heat Release Rate:              0.232 kW
       Mesh    2
       Max CFL number:  0.20E-01 at (   3,  13,   4)
       Max divergence:  0.12E-05 at (   5,   8,   1)
       Min divergence: -0.11E-05 at (   5,  14,   7)
       Max VN number:   0.17E-01 at (   9,   6,  18)
 
       Time Step       4   February 21, 2018  03:51:56
       Step Size:    0.546E-01 s, Total Time:       0.22 s
       Pressure Iterations:      1
       Maximum Velocity Error:  0.10E-01 on Mesh   1 at (  28  25   5)
       Maximum Pressure Error:  0.27E+01 on Mesh   1 at (  28  25   5)
       ---------------------------------------------------------------
       Mesh    1
       Max CFL number:  0.84E-01 at (  28,  25,   5)
       Max divergence:  0.12E+01 at (  28,  25,   5)
       Min divergence: -0.14E-05 at (  80,  19,  26)
       Max VN number:   0.19E-01 at (  19,  46,  14)
       No. of Lagrangian Particles:         10000
       Total Heat Release Rate:              0.320 kW
       Radiation Loss to Boundaries:        -0.009 kW
       Mesh    2
       Max CFL number:  0.20E-01 at (   3,  13,   4)
       Max divergence:  0.13E-05 at (   5,   8,   1)
       Min divergence: -0.11E-05 at (   5,   9,   1)
       Max VN number:   0.17E-01 at (   9,   6,  18)
 
       Time Step       5   February 21, 2018  03:51:58
       Step Size:    0.546E-01 s, Total Time:       0.27 s
       Pressure Iterations:      1
       Maximum Velocity Error:  0.42E-02 on Mesh   1 at (  29  22   5)
       Maximum Pressure Error:  0.39E+01 on Mesh   1 at (  28  25   5)
       ---------------------------------------------------------------
       Mesh    1
       Max CFL number:  0.14E+00 at (  28,  25,   5)
       Max divergence:  0.13E+01 at (  28,  25,   5)
       Min divergence: -0.14E-05 at (  80,  19,  26)
       Max VN number:   0.23E-01 at (  29,  25,   6)
       No. of Lagrangian Particles:         10000
       Total Heat Release Rate:              0.371 kW
       Radiation Loss to Boundaries:        -0.014 kW
       Mesh    2
       Max CFL number:  0.20E-01 at (   3,  13,   4)
       Max divergence:  0.13E-05 at (   5,   8,   1)
       Min divergence: -0.11E-05 at (   5,   9,   1)
       Max VN number:   0.17E-01 at (   9,   6,  18)
 
       Time Step       6   February 21, 2018  03:51:59
       Step Size:    0.546E-01 s, Total Time:       0.33 s
       Pressure Iterations:      1
       Maximum Velocity Error:  0.14E-01 on Mesh   1 at (  29  23   5)
       Maximum Pressure Error:  0.14E+01 on Mesh   1 at (  28  25   5)
       ---------------------------------------------------------------
       Mesh    1
       Max CFL number:  0.18E+00 at (  28,  25,   5)
       Max divergence:  0.13E+01 at (  28,  25,   5)
       Min divergence: -0.17E-05 at (  29,  23,   4)
       Max VN number:   0.34E-01 at (  29,  25,   6)
       No. of Lagrangian Particles:         10000
       Total Heat Release Rate:              0.404 kW
       Radiation Loss to Boundaries:        -0.036 kW
       Mesh    2
       Max CFL number:  0.20E-01 at (   3,  13,   4)
       Max divergence:  0.13E-05 at (   5,   8,   1)
       Min divergence: -0.11E-05 at (   5,   9,   1)
       Max VN number:   0.17E-01 at (   9,   6,  18)
 
       Time Step       7   February 21, 2018  03:52:01
       Step Size:    0.546E-01 s, Total Time:       0.38 s
       Pressure Iterations:      1
       Maximum Velocity Error:  0.25E-01 on Mesh   1 at (  28  25   5)
       Maximum Pressure Error:  0.38E+01 on Mesh   1 at (  29  23   5)
       ---------------------------------------------------------------
       Mesh    1
       Max CFL number:  0.21E+00 at (  28,  25,   5)
       Max divergence:  0.12E+01 at (  28,  25,   5)
       Min divergence: -0.29E-05 at (  28,  24,   4)
       Max VN number:   0.46E-01 at (  29,  25,   6)
       No. of Lagrangian Particles:         10000
       Total Heat Release Rate:              0.434 kW
       Radiation Loss to Boundaries:        -0.057 kW
       Mesh    2
       Max CFL number:  0.19E-01 at (   3,  13,   4)
       Max divergence:  0.13E-05 at (   5,   8,   1)
       Min divergence: -0.11E-05 at (   5,   9,   1)
       Max VN number:   0.17E-01 at (   9,   6,  18)
 
       Time Step       8   February 21, 2018  03:52:02
       Step Size:    0.546E-01 s, Total Time:       0.44 s
       Pressure Iterations:      2
       Maximum Velocity Error:  0.23E-01 on Mesh   1 at (  28  25   5)
       Maximum Pressure Error:  0.70E+00 on Mesh   1 at (  28  25   6)
       ---------------------------------------------------------------
       Mesh    1
       Max CFL number:  0.21E+00 at (  28,  25,   5)
       Max divergence:  0.11E+01 at (  28,  25,   5)
       Min divergence: -0.46E-05 at (  28,  24,   4)
       Max VN number:   0.58E-01 at (  29,  25,   6)
       No. of Lagrangian Particles:         10000
       Total Heat Release Rate:              0.454 kW
       Radiation Loss to Boundaries:        -0.067 kW
       Mesh    2
       Max CFL number:  0.19E-01 at (   3,  13,   4)
       Max divergence:  0.13E-05 at (   5,   8,   1)
       Min divergence: -0.11E-05 at (   5,   9,   1)
       Max VN number:   0.17E-01 at (   9,   6,  18)
 
       Time Step       9   February 21, 2018  03:52:04
       Step Size:    0.546E-01 s, Total Time:       0.49 s
       Pressure Iterations:      1
       Maximum Velocity Error:  0.21E-01 on Mesh   1 at (  29  23   5)
       Maximum Pressure Error:  0.15E+02 on Mesh   1 at (  29  23   5)
       ---------------------------------------------------------------
       Mesh    1
       Max CFL number:  0.21E+00 at (  28,  25,   5)
       Max divergence:  0.11E+01 at (  28,  25,   5)
       Min divergence: -0.55E-05 at (  29,  23,   3)
       Max VN number:   0.61E-01 at (  28,  25,   6)
       No. of Lagrangian Particles:         10000
       Total Heat Release Rate:              0.465 kW
       Radiation Loss to Boundaries:        -0.103 kW
       Mesh    2
       Max CFL number:  0.19E-01 at (   3,  13,   4)
       Max divergence:  0.13E-05 at (   5,   8,   1)
       Min divergence: -0.11E-05 at (   5,   9,   1)
       Max VN number:   0.17E-01 at (   9,   6,  18)
 
       Time Step      10   February 21, 2018  03:52:05
       Step Size:    0.546E-01 s, Total Time:       0.55 s
       Pressure Iterations:      1
       Maximum Velocity Error:  0.20E-01 on Mesh   1 at (  29  23   5)
       Maximum Pressure Error:  0.21E+02 on Mesh   1 at (  29  23   5)
       ---------------------------------------------------------------
       Mesh    1
       Max CFL number:  0.22E+00 at (  28,  25,   5)
       Max divergence:  0.97E+00 at (  28,  25,   5)
       Min divergence: -0.96E-05 at (  29,  23,   3)
       Max VN number:   0.70E-01 at (  28,  25,   6)
       No. of Lagrangian Particles:         10000
       Total Heat Release Rate:              0.470 kW
       Radiation Loss to Boundaries:        -0.135 kW
       Mesh    2
       Max CFL number:  0.19E-01 at (   3,  13,   4)
       Max divergence:  0.13E-05 at (   5,   8,   1)
       Min divergence: -0.11E-05 at (   5,   9,   1)
       Max VN number:   0.17E-01 at (   9,   6,  18)
 
       Time Step      20   February 21, 2018  03:52:20
       Step Size:    0.546E-01 s, Total Time:       1.09 s
       Pressure Iterations:      1
       Maximum Velocity Error:  0.15E-01 on Mesh   1 at (  28  24   5)
       Maximum Pressure Error:  0.11E+01 on Mesh   1 at (  28  25   5)
       ---------------------------------------------------------------
       Mesh    1
       Max CFL number:  0.59E+00 at (  28,  25,   8)
       Max divergence:  0.50E+00 at (  28,  24,   5)
       Min divergence: -0.16E+00 at (  29,  25,   7)
       Max VN number:   0.27E+00 at (  28,  25,   7)
       No. of Lagrangian Particles:         10000
       Total Heat Release Rate:              0.380 kW
       Radiation Loss to Boundaries:        -0.092 kW
       Mesh    2
       Max CFL number:  0.19E-01 at (   9,   6,  18)
       Max divergence:  0.14E-05 at (   5,   8,   1)
       Min divergence: -0.11E-05 at (  11,   8,   6)
       Max VN number:   0.16E-01 at (   9,   6,  18)
 
       Time Step      30   February 21, 2018  03:52:35
       Step Size:    0.546E-01 s, Total Time:       1.64 s
       Pressure Iterations:      1
       Maximum Velocity Error:  0.18E-02 on Mesh   1 at (  28  23   5)
       Maximum Pressure Error:  0.11E+01 on Mesh   1 at (  29  24   8)
       ---------------------------------------------------------------
       Mesh    1
       Max CFL number:  0.74E+00 at (  29,  24,   9)
       Max divergence:  0.88E+00 at (  28,  23,   5)
       Min divergence: -0.33E+00 at (  29,  23,   6)
       Max VN number:   0.32E+00 at (  29,  25,  11)
       No. of Lagrangian Particles:         10000
       Total Heat Release Rate:              0.410 kW
       Radiation Loss to Boundaries:        -0.115 kW
       Mesh    2
       Max CFL number:  0.18E-01 at (   9,   7,  18)
       Max divergence:  0.14E-05 at (   5,   8,   1)
       Min divergence: -0.11E-05 at (  11,   8,   6)
       Max VN number:   0.15E-01 at (   9,   6,  18)
 
       Time Step      40   February 21, 2018  03:52:50
       Step Size:    0.391E-01 s, Total Time:       2.12 s
       Pressure Iterations:      1
       Maximum Velocity Error:  0.18E-02 on Mesh   1 at (  29  23   5)
       Maximum Pressure Error:  0.81E+01 on Mesh   1 at (  29  25   5)
       ---------------------------------------------------------------
       Mesh    1
       Max CFL number:  0.90E+00 at (  29,  24,  12)
       Max divergence:  0.89E+00 at (  28,  25,   5)
       Min divergence: -0.41E+00 at (  29,  23,   7)
       Max VN number:   0.26E+00 at (  29,  24,  12)
       No. of Lagrangian Particles:         10000
       Total Heat Release Rate:              0.414 kW
       Radiation Loss to Boundaries:        -0.135 kW
       Mesh    2
       Max CFL number:  0.13E-01 at (   9,   7,  18)
       Max divergence:  0.14E-05 at (   5,   8,   1)
       Min divergence: -0.11E-05 at (  11,   8,   6)
       Max VN number:   0.10E-01 at (   9,  13,   9)
 
       Time Step      50   February 21, 2018  03:53:05
       Step Size:    0.347E-01 s, Total Time:       2.49 s
       Pressure Iterations:      1
       Maximum Velocity Error:  0.19E-02 on Mesh   1 at (  29  25  23)
       Maximum Pressure Error:  0.33E+01 on Mesh   1 at (  29  24  17)
       ---------------------------------------------------------------
       Mesh    1
       Max CFL number:  0.89E+00 at (  29,  24,  17)
       Max divergence:  0.75E+00 at (  29,  25,   5)
       Min divergence: -0.37E+00 at (  29,  23,   7)
       Max VN number:   0.25E+00 at (  29,  24,  16)
       No. of Lagrangian Particles:         10000
       Total Heat Release Rate:              0.420 kW
       Radiation Loss to Boundaries:        -0.092 kW
       Mesh    2
       Max CFL number:  0.11E-01 at (   9,   7,  18)
       Max divergence:  0.13E-05 at (   5,   8,   1)
       Min divergence: -0.11E-05 at (  11,   8,   6)
       Max VN number:   0.88E-02 at (   9,  13,   9)
 
       Time Step      60   February 21, 2018  03:53:20
       Step Size:    0.347E-01 s, Total Time:       2.84 s
       Pressure Iterations:      2
       Maximum Velocity Error:  0.12E-01 on Mesh   1 at (  29  24  23)
       Maximum Pressure Error:  0.39E+01 on Mesh   1 at (  29  24  21)
       ---------------------------------------------------------------
       Mesh    1
       Max CFL number:  0.84E+00 at (  29,  24,  21)
       Max divergence:  0.79E+00 at (  29,  25,   5)
       Min divergence: -0.13E+00 at (  29,  23,   8)
       Max VN number:   0.25E+00 at (  29,  23,  21)
       No. of Lagrangian Particles:         10000
       Total Heat Release Rate:              0.420 kW
       Radiation Loss to Boundaries:        -0.124 kW
       Mesh    2
       Max CFL number:  0.11E-01 at (   9,   7,  18)
       Max divergence:  0.13E-05 at (   5,   8,   1)
       Min divergence: -0.11E-05 at (  11,   8,   6)
       Max VN number:   0.86E-02 at (   3,   5,  17)
 
       Time Step      70   February 21, 2018  03:53:36
       Step Size:    0.382E-01 s, Total Time:       3.19 s
       Pressure Iterations:      2
       Maximum Velocity Error:  0.12E-01 on Mesh   1 at (  27  24  23)
       Maximum Pressure Error:  0.14E+01 on Mesh   1 at (  28  24  19)
       ---------------------------------------------------------------
       Mesh    1
       Max CFL number:  0.88E+00 at (  28,  24,  18)
       Max divergence:  0.81E+00 at (  29,  25,   5)
       Min divergence: -0.20E+00 at (  28,  25,   6)
       Max VN number:   0.43E+00 at (  30,  24,  22)
       No. of Lagrangian Particles:         10000
       Total Heat Release Rate:              0.410 kW
       Radiation Loss to Boundaries:        -0.147 kW
       Mesh    2
       Max CFL number:  0.12E-01 at (   9,   7,  18)
       Max divergence:  0.13E-05 at (   5,   8,   1)
       Min divergence: -0.11E-05 at (  11,   8,   6)
       Max VN number:   0.93E-02 at (   3,   5,  17)
 
       Time Step      80   February 21, 2018  03:53:51
       Step Size:    0.420E-01 s, Total Time:       3.59 s
       Pressure Iterations:      1
       Maximum Velocity Error:  0.13E-01 on Mesh   1 at (  27  26  23)
       Maximum Pressure Error:  0.15E+01 on Mesh   1 at (  28  23   5)
       ---------------------------------------------------------------
       Mesh    1
       Max CFL number:  0.80E+00 at (  29,  24,  17)
       Max divergence:  0.71E+00 at (  29,  23,   5)
       Min divergence: -0.14E+00 at (  28,  25,   6)
       Max VN number:   0.24E+00 at (  26,  24,  22)
       No. of Lagrangian Particles:         10000
       Total Heat Release Rate:              0.417 kW
       Radiation Loss to Boundaries:        -0.087 kW
       Mesh    2
       Max CFL number:  0.12E-01 at (   9,   7,  18)
       Max divergence:  0.12E-05 at (   5,   8,   1)
       Min divergence: -0.10E-05 at (  11,   8,   6)
       Max VN number:   0.10E-01 at (   3,   5,  17)
 
       Time Step      90   February 21, 2018  03:54:05
       Step Size:    0.462E-01 s, Total Time:       4.03 s
       Pressure Iterations:      1
       Maximum Velocity Error:  0.90E-02 on Mesh   1 at (  28  23  23)
       Maximum Pressure Error:  0.20E+01 on Mesh   1 at (  28  24  15)
       ---------------------------------------------------------------
       Mesh    1
       Max CFL number:  0.85E+00 at (  28,  24,  13)
       Max divergence:  0.85E+00 at (  28,  23,   5)
       Min divergence: -0.20E+00 at (  29,  25,   6)
       Max VN number:   0.27E+00 at (  28,  24,  13)
       No. of Lagrangian Particles:         10000
       Total Heat Release Rate:              0.417 kW
       Radiation Loss to Boundaries:        -0.134 kW
       Mesh    2
       Max CFL number:  0.13E-01 at (   9,   7,  18)
       Max divergence:  0.12E-05 at (   5,   8,   1)
       Min divergence: -0.10E-05 at (  11,   8,   6)
       Max VN number:   0.11E-01 at (   3,   5,  17)
 
       Time Step     100   February 21, 2018  03:54:21
       Step Size:    0.462E-01 s, Total Time:       4.50 s
       Pressure Iterations:      1
       Maximum Velocity Error:  0.24E-01 on Mesh   1 at (  30  23  23)
       Maximum Pressure Error:  0.43E+01 on Mesh   1 at (  29  25   5)
       ---------------------------------------------------------------
       Mesh    1
       Max CFL number:  0.86E+00 at (  28,  24,  19)
       Max divergence:  0.88E+00 at (  28,  23,   5)
       Min divergence: -0.37E+00 at (  29,  25,   7)
       Max VN number:   0.28E+00 at (  28,  24,  19)
       No. of Lagrangian Particles:         10000
       Total Heat Release Rate:              0.417 kW
       Radiation Loss to Boundaries:        -0.149 kW
       Mesh    2
       Max CFL number:  0.13E-01 at (  11,   8,   6)
       Max divergence:  0.12E-05 at (   5,   8,   1)
       Min divergence: -0.10E-05 at (  11,   8,   6)
       Max VN number:   0.10E-01 at (   3,   5,  17)
 
       Time Step     200   February 21, 2018  03:56:51
       Step Size:    0.480E-01 s, Total Time:       9.13 s
       Pressure Iterations:      1
       Maximum Velocity Error:  0.14E-01 on Mesh   1 at (  27  23  23)
       Maximum Pressure Error:  0.20E+01 on Mesh   1 at (  30  23  17)
       ---------------------------------------------------------------
       Mesh    1
       Max CFL number:  0.88E+00 at (  30,  23,  16)
       Max divergence:  0.82E+00 at (  28,  25,   5)
       Min divergence: -0.34E+00 at (  29,  23,   7)
       Max VN number:   0.30E+00 at (  29,  23,   9)
       No. of Lagrangian Particles:         10000
       Total Heat Release Rate:              0.437 kW
       Radiation Loss to Boundaries:        -0.088 kW
       Mesh    2
       Max CFL number:  0.11E-01 at (   2,   9,   1)
       Max divergence:  0.98E-06 at (   5,   8,   1)
       Min divergence: -0.93E-06 at (  11,   8,   5)
       Max VN number:   0.91E-02 at (   8,  15,   4)
 
       Time Step     300   February 21, 2018  03:59:22
       Step Size:    0.453E-01 s, Total Time:      13.50 s
       Pressure Iterations:      1
       Maximum Velocity Error:  0.56E-02 on Mesh   1 at (  29  25  23)
       Maximum Pressure Error:  0.11E+02 on Mesh   1 at (  29  25   5)
       ---------------------------------------------------------------
       Mesh    1
       Max CFL number:  0.85E+00 at (  29,  24,  15)
       Max divergence:  0.11E+01 at (  28,  25,   5)
       Min divergence: -0.43E+00 at (  29,  25,   7)
       Max VN number:   0.29E+00 at (  29,  23,   7)
       No. of Lagrangian Particles:         10000
       Total Heat Release Rate:              0.444 kW
       Radiation Loss to Boundaries:        -0.130 kW
       Mesh    2
       Max CFL number:  0.90E-02 at (   2,   9,   1)
       Max divergence:  0.10E-05 at (   5,   8,   1)
       Min divergence: -0.75E-06 at (  11,   8,   5)
       Max VN number:   0.81E-02 at (   6,   7,   4)
 
       Time Step     400   February 21, 2018  04:01:52
       Step Size:    0.412E-01 s, Total Time:      17.83 s
       Pressure Iterations:      1
       Maximum Velocity Error:  0.15E-01 on Mesh   1 at (  30  24  23)
       Maximum Pressure Error:  0.17E+01 on Mesh   1 at (  29  23  18)
       ---------------------------------------------------------------
       Mesh    1
       Max CFL number:  0.85E+00 at (  29,  23,  17)
       Max divergence:  0.11E+01 at (  28,  25,   5)
       Min divergence: -0.56E+00 at (  29,  23,   7)
       Max VN number:   0.31E+00 at (  29,  23,   9)
       No. of Lagrangian Particles:         10000
       Total Heat Release Rate:              0.473 kW
       Radiation Loss to Boundaries:        -0.135 kW
       Mesh    2
       Max CFL number:  0.10E-01 at (   5,   8,   3)
       Max divergence:  0.17E-05 at (   6,  11,   1)
       Min divergence: -0.69E-06 at (  11,   8,   4)
       Max VN number:   0.70E-02 at (   9,   6,  17)
 
       Time Step     500   February 21, 2018  04:04:24
       Step Size:    0.373E-01 s, Total Time:      22.15 s
       Pressure Iterations:      1
       Maximum Velocity Error:  0.12E-01 on Mesh   1 at (  28  25  23)
       Maximum Pressure Error:  0.11E+02 on Mesh   1 at (  29  23   5)
       ---------------------------------------------------------------
       Mesh    1
       Max CFL number:  0.90E+00 at (  28,  25,  20)
       Max divergence:  0.12E+01 at (  28,  25,   5)
       Min divergence: -0.48E+00 at (  29,  23,   7)
       Max VN number:   0.29E+00 at (  28,  25,  19)
       No. of Lagrangian Particles:         10000
       Total Heat Release Rate:              0.470 kW
       Radiation Loss to Boundaries:        -0.093 kW
       Mesh    2
       Max CFL number:  0.21E-01 at (   8,   8,   1)
       Max divergence:  0.55E-04 at (   5,   9,   1)
       Min divergence: -0.59E-06 at (  11,   8,   4)
       Max VN number:   0.16E-01 at (   6,   9,   1)
 
       Time Step     600   February 21, 2018  04:06:57
       Step Size:    0.423E-01 s, Total Time:      26.47 s
       Pressure Iterations:      1
       Maximum Velocity Error:  0.10E-01 on Mesh   1 at (  27  24  23)
       Maximum Pressure Error:  0.12E+01 on Mesh   1 at (  28  25  13)
       ---------------------------------------------------------------
       Mesh    1
       Max CFL number:  0.92E+00 at (  29,  24,  19)
       Max divergence:  0.11E+01 at (  28,  23,   5)
       Min divergence: -0.48E+00 at (  29,  25,   7)
       Max VN number:   0.35E+00 at (  29,  25,  22)
       No. of Lagrangian Particles:         10000
       Total Heat Release Rate:              0.492 kW
       Radiation Loss to Boundaries:        -0.127 kW
       Mesh    2
       Max CFL number:  0.61E-01 at (   9,   8,   1)
       Max divergence:  0.60E-03 at (   5,   7,   1)
       Min divergence: -0.12E-03 at (   6,  11,   1)
       Max VN number:   0.22E-01 at (   9,   7,   1)
 
       Time Step     700   February 21, 2018  04:09:33
       Step Size:    0.419E-01 s, Total Time:      30.54 s
       Pressure Iterations:      1
       Maximum Velocity Error:  0.24E-01 on Mesh   1 at (  31  25  23)
       Maximum Pressure Error:  0.35E+01 on Mesh   1 at (  28  25  17)
       ---------------------------------------------------------------
       Mesh    1
       Max CFL number:  0.85E+00 at (  29,  25,  18)
       Max divergence:  0.12E+01 at (  28,  23,   5)
       Min divergence: -0.41E+00 at (  29,  25,   7)
       Max VN number:   0.34E+00 at (  31,  25,  22)
       No. of Lagrangian Particles:         10000
       Total Heat Release Rate:              0.509 kW
       Radiation Loss to Boundaries:        -0.129 kW
       Mesh    2
       Max CFL number:  0.15E+00 at (  10,  10,   4)
       Max divergence:  0.98E-03 at (   6,   7,   1)
       Min divergence: -0.30E-03 at (  10,   6,   1)
       Max VN number:   0.38E-01 at (   9,  10,   1)
 
       Time Step     800   February 21, 2018  04:12:06
       Step Size:    0.425E-01 s, Total Time:      34.55 s
       Pressure Iterations:      1
       Maximum Velocity Error:  0.13E-01 on Mesh   1 at (  29  23  23)
       Maximum Pressure Error:  0.30E+01 on Mesh   1 at (  28  23   5)
       ---------------------------------------------------------------
       Mesh    1
       Max CFL number:  0.98E+00 at (  30,  24,  18)
       Max divergence:  0.11E+01 at (  28,  25,   5)
       Min divergence: -0.44E+00 at (  29,  23,   7)
       Max VN number:   0.31E+00 at (  29,  22,  22)
       No. of Lagrangian Particles:         10000
       Total Heat Release Rate:              0.514 kW
       Radiation Loss to Boundaries:        -0.093 kW
       Mesh    2
       Max CFL number:  0.27E+00 at (  10,   7,   8)
       Max divergence:  0.90E-03 at (   6,   8,   2)
       Min divergence: -0.91E-03 at (  10,   8,  18)
       Max VN number:   0.71E-01 at (  10,   8,  17)
 
       Time Step     900   February 21, 2018  04:14:39
       Step Size:    0.397E-01 s, Total Time:      38.71 s
       Pressure Iterations:      1
       Maximum Velocity Error:  0.20E-01 on Mesh   1 at (  28  25  23)
       Maximum Pressure Error:  0.19E+01 on Mesh   1 at (  30  25  20)
       ---------------------------------------------------------------
       Mesh    1
       Max CFL number:  0.91E+00 at (  30,  25,  18)
       Max divergence:  0.12E+01 at (  28,  23,   5)
       Min divergence: -0.36E+00 at (  29,  25,   7)
       Max VN number:   0.31E+00 at (  31,  23,  22)
       No. of Lagrangian Particles:         10000
       Total Heat Release Rate:              0.526 kW
       Radiation Loss to Boundaries:        -0.133 kW
       Mesh    2
       Max CFL number:  0.28E+00 at (   9,   9,  20)
       Max divergence:  0.10E-02 at (   7,   7,   5)
       Min divergence: -0.19E-02 at (  10,   6,  17)
       Max VN number:   0.92E-01 at (  10,  11,  17)
 
       Time Step    1000   February 21, 2018  04:17:13
       Step Size:    0.414E-01 s, Total Time:      42.82 s
       Pressure Iterations:      2
       Maximum Velocity Error:  0.85E-02 on Mesh   1 at (  29  24  23)
       Maximum Pressure Error:  0.23E+01 on Mesh   1 at (  29  23   5)
       ---------------------------------------------------------------
       Mesh    1
       Max CFL number:  0.90E+00 at (  28,  24,  16)
       Max divergence:  0.12E+01 at (  28,  25,   5)
       Min divergence: -0.52E+00 at (  29,  25,   7)
       Max VN number:   0.40E+00 at (  28,  25,  22)
       No. of Lagrangian Particles:         10000
       Total Heat Release Rate:              0.537 kW
       Radiation Loss to Boundaries:        -0.168 kW
       Mesh    2
       Max CFL number:  0.28E+00 at (   8,   8,  19)
       Max divergence:  0.14E-02 at (   5,   7,   1)
       Min divergence: -0.13E-02 at (  10,  11,  17)
       Max VN number:   0.86E-01 at (   6,   9,   4)
 
       Time Step    1100   February 21, 2018  04:19:45
       Step Size:    0.399E-01 s, Total Time:      46.85 s
       Pressure Iterations:      1
       Maximum Velocity Error:  0.17E-01 on Mesh   1 at (  30  24  23)
       Maximum Pressure Error:  0.24E+01 on Mesh   1 at (  28  25   9)
       ---------------------------------------------------------------
       Mesh    1
       Max CFL number:  0.80E+00 at (  29,  25,  17)
       Max divergence:  0.13E+01 at (  28,  23,   5)
       Min divergence: -0.33E+00 at (  29,  25,   7)
       Max VN number:   0.35E+00 at (  30,  23,  22)
       No. of Lagrangian Particles:         10000
       Total Heat Release Rate:              0.549 kW
       Radiation Loss to Boundaries:        -0.097 kW
       Mesh    2
       Max CFL number:  0.26E+00 at (  10,  10,   9)
       Max divergence:  0.79E-03 at (   6,   8,   5)
       Min divergence: -0.12E-02 at (   6,   9,  18)
       Max VN number:   0.87E-01 at (   6,   9,   5)
 
       Time Step    1200   February 21, 2018  04:22:17
       Step Size:    0.395E-01 s, Total Time:      50.85 s
       Pressure Iterations:      1
       Maximum Velocity Error:  0.21E-01 on Mesh   1 at (  28  25  23)
       Maximum Pressure Error:  0.19E+01 on Mesh   1 at (  29  25   5)
       ---------------------------------------------------------------
       Mesh    1
       Max CFL number:  0.95E+00 at (  28,  24,  17)
       Max divergence:  0.13E+01 at (  28,  23,   5)
       Min divergence: -0.55E+00 at (  29,  25,   7)
       Max VN number:   0.32E+00 at (  29,  25,   9)
       No. of Lagrangian Particles:         10000
       Total Heat Release Rate:              0.564 kW
       Radiation Loss to Boundaries:        -0.163 kW
       Mesh    2
       Max CFL number:  0.27E+00 at (  10,   8,  20)
       Max divergence:  0.15E-02 at (   5,   8,   1)
       Min divergence: -0.13E-02 at (  10,  11,  17)
       Max VN number:   0.10E+00 at (   6,   8,   4)
 
       Time Step    1300   February 21, 2018  04:24:49
       Step Size:    0.412E-01 s, Total Time:      54.79 s
       Pressure Iterations:      1
       Maximum Velocity Error:  0.24E-01 on Mesh   1 at (  31  24  23)
       Maximum Pressure Error:  0.19E+01 on Mesh   1 at (  28  24  16)
       ---------------------------------------------------------------
       Mesh    1
       Max CFL number:  0.81E+00 at (  29,  25,  13)
       Max divergence:  0.12E+01 at (  28,  23,   5)
       Min divergence: -0.43E+00 at (  29,  25,   8)
       Max VN number:   0.29E+00 at (  29,  25,  11)
       No. of Lagrangian Particles:         10000
       Total Heat Release Rate:              0.570 kW
       Radiation Loss to Boundaries:        -0.172 kW
       Mesh    2
       Max CFL number:  0.31E+00 at (   7,   6,  17)
       Max divergence:  0.19E-02 at (   5,   6,   1)
       Min divergence: -0.14E-02 at (   7,   6,  17)
       Max VN number:   0.11E+00 at (   7,   6,  17)
 
       Time Step    1400   February 21, 2018  04:27:21
       Step Size:    0.367E-01 s, Total Time:      58.70 s
       Pressure Iterations:      2
       Maximum Velocity Error:  0.86E-02 on Mesh   1 at (  29  26  23)
       Maximum Pressure Error:  0.24E+01 on Mesh   1 at (  29  24  19)
       ---------------------------------------------------------------
       Mesh    1
       Max CFL number:  0.83E+00 at (  29,  25,  19)
       Max divergence:  0.13E+01 at (  29,  23,   5)
       Min divergence: -0.66E+00 at (  29,  25,   7)
       Max VN number:   0.29E+00 at (  29,  25,   8)
       No. of Lagrangian Particles:         10000
       Total Heat Release Rate:              0.589 kW
       Radiation Loss to Boundaries:        -0.126 kW
       Mesh    2
       Max CFL number:  0.29E+00 at (   8,   6,  12)
       Max divergence:  0.13E-02 at (   6,   9,   1)
       Min divergence: -0.11E-02 at (   7,   7,   5)
       Max VN number:   0.86E-01 at (   5,   9,  17)
 
       Time Step    1500   February 21, 2018  04:29:50
       Step Size:    0.367E-01 s, Total Time:      62.37 s
       Pressure Iterations:      1
       Maximum Velocity Error:  0.19E-01 on Mesh   1 at (  28  25  23)
       Maximum Pressure Error:  0.15E+01 on Mesh   1 at (  29  26  19)
       ---------------------------------------------------------------
       Mesh    1
       Max CFL number:  0.91E+00 at (  29,  25,  19)
       Max divergence:  0.13E+01 at (  28,  25,   5)
       Min divergence: -0.57E+00 at (  29,  25,   7)
       Max VN number:   0.29E+00 at (  32,  24,  22)
       No. of Lagrangian Particles:         10000
       Total Heat Release Rate:              0.599 kW
       Radiation Loss to Boundaries:        -0.169 kW
       Mesh    2
       Max CFL number:  0.28E+00 at (   7,   7,   2)
       Max divergence:  0.15E-02 at (   5,   6,   1)
       Min divergence: -0.15E-02 at (   6,   7,   2)
       Max VN number:   0.10E+00 at (   6,   6,  18)
 
       Time Step    1600   February 21, 2018  04:32:19
       Step Size:    0.355E-01 s, Total Time:      66.06 s
       Pressure Iterations:      1
       Maximum Velocity Error:  0.21E-01 on Mesh   1 at (  30  25  23)
       Maximum Pressure Error:  0.11E+01 on Mesh   1 at (  31  24  21)
       ---------------------------------------------------------------
       Mesh    1
       Max CFL number:  0.89E+00 at (  30,  24,  20)
       Max divergence:  0.13E+01 at (  28,  25,   5)
       Min divergence: -0.63E+00 at (  29,  25,   7)
       Max VN number:   0.30E+00 at (  29,  25,   9)
       No. of Lagrangian Particles:         10000
       Total Heat Release Rate:              0.611 kW
       Radiation Loss to Boundaries:        -0.192 kW
       Mesh    2
       Max CFL number:  0.27E+00 at (   7,   7,   7)
       Max divergence:  0.17E-02 at (   5,  11,   1)
       Min divergence: -0.16E-02 at (   9,   6,  17)
       Max VN number:   0.68E-01 at (   5,  10,  17)
 
       Time Step    1700   February 21, 2018  04:34:50
       Step Size:    0.358E-01 s, Total Time:      69.90 s
       Pressure Iterations:      1
       Maximum Velocity Error:  0.22E-01 on Mesh   1 at (  28  23  23)
       Maximum Pressure Error:  0.24E+01 on Mesh   1 at (  30  25  15)
       ---------------------------------------------------------------
       Mesh    1
       Max CFL number:  0.83E+00 at (  29,  25,  20)
       Max divergence:  0.13E+01 at (  29,  23,   5)
       Min divergence: -0.59E+00 at (  29,  25,   7)
       Max VN number:   0.30E+00 at (  29,  26,  22)
       No. of Lagrangian Particles:         10000
       Total Heat Release Rate:              0.623 kW
       Radiation Loss to Boundaries:        -0.127 kW
       Mesh    2
       Max CFL number:  0.30E+00 at (   7,   7,  15)
       Max divergence:  0.20E-02 at (   5,  11,   2)
       Min divergence: -0.16E-02 at (   6,  10,   1)
       Max VN number:   0.77E-01 at (   7,   7,  15)
 
       Time Step    1800   February 21, 2018  04:37:22
       Step Size:    0.371E-01 s, Total Time:      73.70 s
       Pressure Iterations:      1
       Maximum Velocity Error:  0.14E-01 on Mesh   1 at (  30  26  23)
       Maximum Pressure Error:  0.40E+01 on Mesh   1 at (  28  25  17)
       ---------------------------------------------------------------
       Mesh    1
       Max CFL number:  0.88E+00 at (  28,  25,  16)
       Max divergence:  0.13E+01 at (  28,  25,   5)
       Min divergence: -0.46E+00 at (  29,  25,   7)
       Max VN number:   0.33E+00 at (  28,  25,  16)
       No. of Lagrangian Particles:         10000
       Total Heat Release Rate:              0.639 kW
       Radiation Loss to Boundaries:        -0.190 kW
       Mesh    2
       Max CFL number:  0.29E+00 at (   9,   7,   8)
       Max divergence:  0.17E-02 at (   6,   8,   1)
       Min divergence: -0.19E-02 at (   6,   7,   1)
       Max VN number:   0.79E-01 at (   7,  11,   5)
 
       Time Step    1900   February 21, 2018  04:39:53
       Step Size:    0.380E-01 s, Total Time:      77.49 s
       Pressure Iterations:      1
       Maximum Velocity Error:  0.14E-01 on Mesh   1 at (  28  26  23)
       Maximum Pressure Error:  0.43E+01 on Mesh   1 at (  30  25  15)
       ---------------------------------------------------------------
       Mesh    1
       Max CFL number:  0.86E+00 at (  29,  25,  11)
       Max divergence:  0.15E+01 at (  29,  23,   5)
       Min divergence: -0.69E+00 at (  29,  25,   7)
       Max VN number:   0.32E+00 at (  29,  25,   9)
       No. of Lagrangian Particles:         10000
       Total Heat Release Rate:              0.654 kW
       Radiation Loss to Boundaries:        -0.218 kW
       Mesh    2
       Max CFL number:  0.30E+00 at (   7,  10,   3)
       Max divergence:  0.13E-02 at (   6,   9,   1)
       Min divergence: -0.19E-02 at (   7,  11,   1)
       Max VN number:   0.82E-01 at (   5,  11,  17)
 
       Time Step    2000   February 21, 2018  04:42:23
       Step Size:    0.368E-01 s, Total Time:      81.22 s
       Pressure Iterations:      1
       Maximum Velocity Error:  0.15E-01 on Mesh   1 at (  29  24  23)
       Maximum Pressure Error:  0.18E+01 on Mesh   1 at (  28  25  17)
       ---------------------------------------------------------------
       Mesh    1
       Max CFL number:  0.88E+00 at (  29,  25,  17)
       Max divergence:  0.15E+01 at (  28,  25,   5)
       Min divergence: -0.59E+00 at (  29,  25,   7)
       Max VN number:   0.32E+00 at (  30,  25,  22)
       No. of Lagrangian Particles:         10000
       Total Heat Release Rate:              0.665 kW
       Radiation Loss to Boundaries:        -0.136 kW
       Mesh    2
       Max CFL number:  0.30E+00 at (   7,  10,   2)
       Max divergence:  0.23E-02 at (   5,   6,   1)
       Min divergence: -0.19E-02 at (   6,   7,   1)
       Max VN number:   0.87E-01 at (   9,  11,  19)
 
       Time Step    2100   February 21, 2018  04:44:51
       Step Size:    0.368E-01 s, Total Time:      84.90 s
       Pressure Iterations:      1
       Maximum Velocity Error:  0.24E-01 on Mesh   1 at (  30  24  23)
       Maximum Pressure Error:  0.12E+01 on Mesh   1 at (  30  24  22)
       ---------------------------------------------------------------
       Mesh    1
       Max CFL number:  0.90E+00 at (  29,  25,  19)
       Max divergence:  0.15E+01 at (  28,  25,   5)
       Min divergence: -0.56E+00 at (  29,  25,   7)
       Max VN number:   0.30E+00 at (  30,  24,  22)
       No. of Lagrangian Particles:         10000
       Total Heat Release Rate:              0.678 kW
       Radiation Loss to Boundaries:        -0.188 kW
       Mesh    2
       Max CFL number:  0.28E+00 at (   7,   7,  10)
       Max divergence:  0.19E-02 at (   6,   9,   1)
       Min divergence: -0.14E-02 at (   6,  10,   2)
       Max VN number:   0.74E-01 at (   5,   6,   1)
 
       Time Step    2200   February 21, 2018  04:47:18
       Step Size:    0.368E-01 s, Total Time:      88.58 s
       Pressure Iterations:      2
       Maximum Velocity Error:  0.10E-01 on Mesh   1 at (  28  25  23)
       Maximum Pressure Error:  0.31E+01 on Mesh   1 at (  30  25  16)
       ---------------------------------------------------------------
       Mesh    1
       Max CFL number:  0.91E+00 at (  29,  25,  19)
       Max divergence:  0.15E+01 at (  28,  23,   5)
       Min divergence: -0.63E+00 at (  29,  25,   7)
       Max VN number:   0.32E+00 at (  28,  25,  22)
       No. of Lagrangian Particles:         10000
       Total Heat Release Rate:              0.692 kW
       Radiation Loss to Boundaries:        -0.223 kW
       Mesh    2
       Max CFL number:  0.31E+00 at (   7,  10,   4)
       Max divergence:  0.31E-02 at (   5,   6,   1)
       Min divergence: -0.17E-02 at (   5,   7,   1)
       Max VN number:   0.68E-01 at (   6,   7,   1)
 
       Time Step    2300   February 21, 2018  04:49:47
       Step Size:    0.368E-01 s, Total Time:      92.27 s
       Pressure Iterations:      2
       Maximum Velocity Error:  0.96E-02 on Mesh   1 at (  28  25  23)
       Maximum Pressure Error:  0.32E+01 on Mesh   1 at (  28  25  14)
       ---------------------------------------------------------------
       Mesh    1
       Max CFL number:  0.81E+00 at (  29,  25,  19)
       Max divergence:  0.15E+01 at (  28,  23,   5)
       Min divergence: -0.64E+00 at (  29,  25,   7)
       Max VN number:   0.28E+00 at (  29,  25,   9)
       No. of Lagrangian Particles:         10000
       Total Heat Release Rate:              0.705 kW
       Radiation Loss to Boundaries:        -0.163 kW
       Mesh    2
       Max CFL number:  0.31E+00 at (   8,  10,  13)
       Max divergence:  0.23E-02 at (   6,   8,   1)
       Min divergence: -0.22E-02 at (   6,   7,   2)
       Max VN number:   0.91E-01 at (   9,  11,  18)
 
       Time Step    2400   February 21, 2018  04:52:18
       Step Size:    0.376E-01 s, Total Time:      95.94 s
       Pressure Iterations:      2
       Maximum Velocity Error:  0.13E-01 on Mesh   1 at (  31  25  23)
       Maximum Pressure Error:  0.61E+01 on Mesh   1 at (  28  25  12)
       ---------------------------------------------------------------
       Mesh    1
       Max CFL number:  0.87E+00 at (  28,  25,  11)
       Max divergence:  0.15E+01 at (  28,  23,   5)
       Min divergence: -0.51E+00 at (  29,  25,   8)
       Max VN number:   0.32E+00 at (  28,  25,  11)
       No. of Lagrangian Particles:         10000
       Total Heat Release Rate:              0.715 kW
       Radiation Loss to Boundaries:        -0.207 kW
       Mesh    2
       Max CFL number:  0.30E+00 at (   7,   8,   8)
       Max divergence:  0.21E-02 at (   6,   9,   1)
       Min divergence: -0.23E-02 at (   6,  10,   1)
       Max VN number:   0.82E-01 at (   6,   7,   2)
 
       Time Step    2500   February 21, 2018  04:54:48
       Step Size:    0.314E-01 s, Total Time:      99.62 s
       Pressure Iterations:      1
       Maximum Velocity Error:  0.14E-01 on Mesh   1 at (  29  26  23)
       Maximum Pressure Error:  0.92E+01 on Mesh   1 at (  28  25  17)
       ---------------------------------------------------------------
       Mesh    1
       Max CFL number:  0.96E+00 at (  28,  25,  17)
       Max divergence:  0.16E+01 at (  28,  23,   5)
       Min divergence: -0.58E+00 at (  29,  25,   8)
       Max VN number:   0.36E+00 at (  28,  25,  16)
       No. of Lagrangian Particles:         10000
       Total Heat Release Rate:              0.752 kW
       Radiation Loss to Boundaries:        -0.234 kW
       Mesh    2
       Max CFL number:  0.25E+00 at (   8,   8,  20)
       Max divergence:  0.18E-02 at (   6,   8,   1)
       Min divergence: -0.21E-02 at (   6,   7,   1)
       Max VN number:   0.64E-01 at (   6,   7,   3)
 
       Time Step    2513   February 21, 2018  04:55:08
       Step Size:    0.174E-01 s, Total Time:     100.00 s
       Pressure Iterations:      1
       Maximum Velocity Error:  0.12E-01 on Mesh   1 at (  29  25  23)
       Maximum Pressure Error:  0.16E+02 on Mesh   1 at (  29  23   5)
       ---------------------------------------------------------------
       Mesh    1
       Max CFL number:  0.42E+00 at (  28,  25,  17)
       Max divergence:  0.18E+01 at (  28,  23,   5)
       Min divergence: -0.57E+00 at (  29,  25,   8)
       Max VN number:   0.20E+00 at (  28,  25,  22)
       No. of Lagrangian Particles:         10000
       Total Heat Release Rate:              0.786 kW
       Radiation Loss to Boundaries:        -0.173 kW
       Mesh    2
       Max CFL number:  0.13E+00 at (   9,  10,  19)
       Max divergence:  0.19E-02 at (   6,   8,   1)
       Min divergence: -0.22E-02 at (   6,   7,   1)
       Max VN number:   0.33E-01 at (   6,   7,   3)
 


 Time Stepping Wall Clock Time (s):     3798.398
 Total Elapsed Wall Clock Time (s):     3817.371

STOP: FDS completed successfully (CHID: V1_npart_10000)
